Version 4.1
SHEET 1 880 680
WIRE -144 -304 -144 -352
WIRE -240 -288 -240 -352
WIRE 384 -240 320 -240
WIRE 528 -240 464 -240
WIRE -240 -176 -240 -208
WIRE -144 -176 -144 -224
WIRE 320 -128 320 -240
WIRE 400 -128 320 -128
WIRE 528 -128 528 -240
WIRE 528 -128 464 -128
WIRE 176 -32 48 -32
WIRE 320 -32 320 -128
WIRE 320 -32 256 -32
WIRE 400 -32 320 -32
WIRE 528 -32 528 -128
WIRE 528 -32 464 -32
WIRE 192 32 208 16
WIRE -128 48 -224 48
WIRE -16 48 -48 48
WIRE 32 48 48 -32
WIRE 32 48 -16 48
WIRE 160 48 32 48
WIRE 176 48 160 48
WIRE 528 64 528 -32
WIRE 528 64 224 64
WIRE 640 64 528 64
WIRE 160 80 80 80
WIRE -16 112 -16 48
WIRE -224 128 -224 48
WIRE 208 128 192 96
WIRE -16 224 -16 176
WIRE 80 272 80 80
WIRE 160 272 80 272
WIRE 272 272 160 272
WIRE 320 272 272 272
WIRE 416 272 384 272
WIRE 528 272 528 64
WIRE 528 272 496 272
WIRE 160 384 160 336
WIRE 272 400 272 352
FLAG -224 128 0
FLAG -240 -176 0
FLAG -144 -176 0
FLAG -16 224 0
FLAG 160 384 0
FLAG 272 400 0
FLAG 640 64 Vout
FLAG 208 128 V-
FLAG -144 -352 V-
FLAG -240 -352 V+
FLAG 208 16 V+
SYMBOL voltage -240 -304 R0
SYMATTR InstName V1
SYMATTR Value 15
SYMBOL voltage -144 -320 R0
SYMATTR InstName V2
SYMATTR Value -15
SYMBOL res 480 -256 R90
WINDOW 0 0 56 VBottom 2
WINDOW 3 32 56 VTop 2
SYMATTR InstName R1
SYMATTR Value 25k
SYMBOL res 272 -48 R90
WINDOW 0 0 56 VBottom 2
WINDOW 3 25 31 VTop 2
SYMATTR InstName RF
SYMATTR Value 75k
SYMBOL res -32 32 R90
WINDOW 0 0 56 VBottom 2
WINDOW 3 32 56 VTop 2
SYMATTR InstName RG
SYMATTR Value 47.5k
SYMBOL diode 464 -144 R90
WINDOW 0 0 32 VBottom 2
WINDOW 3 32 32 VTop 2
SYMATTR InstName D1
SYMATTR Value 1N4148
SYMBOL diode 400 -16 R270
WINDOW 0 32 32 VTop 2
WINDOW 3 0 32 VBottom 2
SYMATTR InstName D2
SYMATTR Value 1N4148
SYMBOL OpAmps\\LT1493 192 0 R0
SYMATTR InstName U1
SYMBOL cap -32 112 R0
SYMATTR InstName C1
SYMATTR Value 18p
SYMBOL cap 144 272 R0
SYMATTR InstName C2
SYMATTR Value {C}
SYMBOL cap 384 256 R90
WINDOW 0 0 32 VBottom 2
WINDOW 3 32 32 VTop 2
SYMATTR InstName C3
SYMATTR Value {C}
SYMBOL res 512 256 R90
WINDOW 0 0 56 VBottom 2
WINDOW 3 32 56 VTop 2
SYMATTR InstName R3
SYMATTR Value {R}
SYMBOL res 288 368 R180
WINDOW 0 36 76 Left 2
WINDOW 3 36 40 Left 2
SYMATTR InstName R5
SYMATTR Value {R}
TEXT -928 -136 Left 2 !.meas T20 when v(vout)=0 rise=20\n.meas T21 when v(vout)=0 rise=21\n.meas Fre param 1/(T21-T20)
TEXT -952 -8 Left 2 !.opt plotwinsize=0
TEXT 328 360 Left 2 !.param C=3n R =10.2k
TEXT -952 144 Left 2 !.tran 0 5ms 0 1u uic
